*Heading
Hou et al. 2017
**
**	UNITS:	Length - meters, Time - sec, Angle - radians,
**		Temperature - Kelvin, Force - Newtons,
**		Stress - Newton/meter^2 = Pa, Mass - kilograms,
**		Density - kg/meter^3, Conductivity - Watt/m-K,
**		Specific Heat - J/m^3-K, Energy - Joules,
**	    Chemical potential - Joules/mole,
**		Fluid content - moles/volume
**		Charge - Coulombs, Electric potential - Volts
**
**
************************************************************************
**			PARAMETERS
************************************************************************
*Parameter
**
************************************************************************
**
**	SIMULATION PARAMETERS 
**
** initial temperature (Kelvin)
theta0 = 298.0
**
************************************************************************
**
**  PHYSICAL CONSTANTS
** 
** elementary charge (C)
e    = 1.6e-19
**
** Avogadro's number (1/mol)
Na   = 6.023e23
**
** universal gas constant (J/mol/K)
Rgas = 8.314
**
eNa  = e*Na
RT   = Rgas*theta0   
**
**
************************************************************************
** 	GEOMETRY
**
** length of the body under consideration
Length = 10.e-6
**
** area at the electrodes (m)
Area = 1.e-2*1.e-2
** 
************************************************************************
**
**	MATERIAL PARAMETERS 
**
**
**  MECHANICAL 
**
** initial shear modulus (Pa)
Gshear = 350.e6
** 
** locking stretch
lam_L  = 10.0
**
** bulk modulus (Pa)
Kbulk = 350.e6
Kbulk_int = Gshear/3
**
**
**
**  ELECTROCHEMICAL
**
** initial voltage (V)
pphi0  = 0.0
**
** ion diffusivity (m2/s)
Dion = 1.e-11
**
**
** molar volume of positive ions (m3/mol)
OmegaP = 5.e-4
**
** maximum concentration of positive ions (mol/m3)
ccRpBar = 1.e6
**
** charge number of positive ions
zP = 1.0
**
** molar volume of positive ions (m3/mol)
OmegaN = OmegaP
**
** maximum concentration of positive ions (mol/m3)
ccRnBar = ccRpBar
**
** charge number of positive ions
zN = -1.0
**
*************************************
**
** 		TOP PART (DF25)
**
** initial positive ion concentration (mol/m3)
ccRp0_top = 1.e-2
**
** initial non-dim. chemical potential of positive ions 
MuP0_top = log(ccRp0_top/ccRpBar) 
**
** initial negative ion concentration (mol/m3)
ccRn0_top = 1.0
**
** initial non-dim. chemical potential of negative ions
MuN0_top = log(ccRn0_top/ccRnBar)
**
** charge number of fixed groups
zFix_top = 1.0 
**	
** concentration of fixed charge groups (mol/m3)
ccRfix_top  = -ccRp0_top+ccRn0_top
**
*************************************
**
** 		BOTTOM PART (Nafion)
**
** initial positive ion concentration (mol/m3)
ccRp0_bot = 1.0
**
** initial non-dim. chemical potential of positive ions
MuP0_bot = log(ccRp0_bot/ccRpBar) 
**
** initial negative ion concentration (mol/m3)
ccRn0_bot = 1.e-2
**
** initial non-dim. chemical potential of negative ions 
MuN0_bot = log(ccRn0_bot/ccRnBar)
**
** charge number of fixed groups
zFix_bot = -1.0 
**
** concentration of fixed charge groups (mol/m3)
ccRfix_bot  =  -ccRn0_bot + ccRp0_bot
**
*************************************
**
** 		INTERFACE (microporous separator)
**
** initial positive ion concentration (mol/m3)
ccRp0_int = 1.e-2
**
** initial non-dim. chemical potential of positive ions
MuP0_int = log(ccRp0_int/ccRpBar) 
**
** initial negative ion concentration (mol/m3)
ccRn0_int = 1.e-2
**
** initial non-dim. chemical potential of negative ions
MuN0_int = log(ccRn0_int/ccRnBar)
**
** charge number of fixed groups
zFix_int = 0.0 
**
** concentration of fixed charge groups (mol/m3)
ccRfix_int  = 1.e-2
**
***********************************
**
** electrolyte strength (mol/m3)
cE  = 0.5
**
** relative permittivity 
epsilonR = 50.0
**
** dielectric permittivity of vacuum (F/m)
epsilon0 = 8.85e-12
**
** dielectric permittivity (F/m)
epsilon     = epsilonR*epsilon0
**
** the Debye length (m)
lambdaD = sqrt(epsilon*RT/(2.0*eNa**2.0*cE))
**
************************************************************************
**
** NON-DIMENSIONALIZING THE INITIAL CONDITIONS
**
Phi0  = pphi0*eNa/RT 
**
** Note: the initial chemical potentials are already computed in their 
** non-dimensional forms
**
************************************************************************
**
**  NON-DIMENSIONAL SIMULATION TIME
**
** time factor (1/s)
timeFactor   = Dion/(lambdaD*Length)
**
** non-dimensional simulation time for step 1
FinalTime_1 =1.0
**
** non-dimensional simulation time for step 2
FinalTime_2 = 2.e-2*timeFactor
**
************************************************************************
**
**	ELEMENT PARAMETERS 
**
** number of body integration points
nInt  = 8
**
** number of surface integration points
nIntS = 4
**
** number of local sdv's
nlSdv = 5
**
** number of global sdv's
ngSdv = 4
**
** number of element variables
nVars = nInt*nlSdv
**
** number of properties (real)
nProps = 18
**
** number of integer properties
nJProps = 4
**
** Dummy Counter (Example: For 3500 Elements, set Dcount to 10000) 
Dcount = 10000
**
scale=1.
**
**
************************************************************************
**		MODEL DEFINITION
************************************************************************
**
*node, nset=nAll 
1,    0.000000000,    0.000000000,    0.000000000
2,    1.000000000,    0.000000000,    0.000000000
3,    1.000000000,    1.000000000,    0.000000000
4,    0.000000000,    1.000000000,    0.000000000
5,    0.000000000,    0.000000000,    0.003333333
6,    1.000000000,    0.000000000,    0.003333333
7,    1.000000000,    1.000000000,    0.003333333
8,    0.000000000,    1.000000000,    0.003333333
9,    0.000000000,    0.000000000,    0.006666667
10,    1.000000000,    0.000000000,    0.006666667
11,    1.000000000,    1.000000000,    0.006666667
12,    0.000000000,    1.000000000,    0.006666667
13,    0.000000000,    0.000000000,    0.010000000
14,    1.000000000,    0.000000000,    0.010000000
15,    1.000000000,    1.000000000,    0.010000000
16,    0.000000000,    1.000000000,    0.010000000
17,    0.000000000,    0.000000000,    0.013333333
18,    1.000000000,    0.000000000,    0.013333333
19,    1.000000000,    1.000000000,    0.013333333
20,    0.000000000,    1.000000000,    0.013333333
** ... 1184 like lines cut
** 
*User Element,Nodes=8,Type=U3,Iproperties=<nJProps>,Properties=<nProps>,Coordinates=3,Variables=<nVars>,Unsymm 
1,2,3,11,12,13 
*element, type=U3, elset=elAll
1,1,2,3,4,5,6,7,8
2,5,6,7,8,9,10,11,12
3,9,10,11,12,13,14,15,16
4,13,14,15,16,17,18,19,20
5,17,18,19,20,21,22,23,24
6,21,22,23,24,25,26,27,28
7,25,26,27,28,29,30,31,32
8,29,30,31,32,33,34,35,36
9,33,34,35,36,37,38,39,40
10,37,38,39,40,41,42,43,44
11,41,42,43,44,45,46,47,48
12,45,46,47,48,49,50,51,52
13,49,50,51,52,53,54,55,56
14,53,54,55,56,57,58,59,60
15,57,58,59,60,61,62,63,64
16,61,62,63,64,65,66,67,68
17,65,66,67,68,69,70,71,72
18,69,70,71,72,73,74,75,76
19,73,74,75,76,77,78,79,80
20,77,78,79,80,81,82,83,84
** ... 280 like lines cut
** 
*element, type=C3D8, elset=ElDummy 
10001,1,2,3,4,5,6,7,8
10002,5,6,7,8,9,10,11,12
10003,9,10,11,12,13,14,15,16
10004,13,14,15,16,17,18,19,20
10005,17,18,19,20,21,22,23,24
10006,21,22,23,24,25,26,27,28
10007,25,26,27,28,29,30,31,32
10008,29,30,31,32,33,34,35,36
10009,33,34,35,36,37,38,39,40
10010,37,38,39,40,41,42,43,44
10011,41,42,43,44,45,46,47,48
10012,45,46,47,48,49,50,51,52
10013,49,50,51,52,53,54,55,56
10014,53,54,55,56,57,58,59,60
10015,57,58,59,60,61,62,63,64
10016,61,62,63,64,65,66,67,68
10017,65,66,67,68,69,70,71,72
10018,69,70,71,72,73,74,75,76
10019,73,74,75,76,77,78,79,80
10020,77,78,79,80,81,82,83,84
** ... 280 like lines cut
** 
*nset, nset=xzSymm 
1,2,5,6,9,10,13,14,17,18
21,22,25,26,29,30,33,34,37,38
41,42,45,46,49,50,53,54,57,58
61,62,65,66,69,70,73,74,77,78
81,82,85,86,89,90,93,94,97,98
101,102,105,106,109,110,113,114,117,118
121,122,125,126,129,130,133,134,137,138
141,142,145,146,149,150,153,154,157,158
161,162,165,166,169,170,173,174,177,178
181,182,185,186,189,190,193,194,197,198
201,202,205,206,209,210,213,214,217,218
221,222,225,226,229,230,233,234,237,238
241,242,245,246,249,250,253,254,257,258
261,262,265,266,269,270,273,274,277,278
281,282,285,286,289,290,293,294,297,298
301,302,305,306,309,310,313,314,317,318
321,322,325,326,329,330,333,334,337,338
341,342,345,346,349,350,353,354,357,358
361,362,365,366,369,370,373,374,377,378
381,382,385,386,389,390,393,394,397,398
** ... 41 like lines cut
** 
*nset, nset=yzSymm 
2,3,6,7,10,11,14,15,18,19
22,23,26,27,30,31,34,35,38,39
42,43,46,47,50,51,54,55,58,59
62,63,66,67,70,71,74,75,78,79
82,83,86,87,90,91,94,95,98,99
102,103,106,107,110,111,114,115,118,119
122,123,126,127,130,131,134,135,138,139
142,143,146,147,150,151,154,155,158,159
162,163,166,167,170,171,174,175,178,179
182,183,186,187,190,191,194,195,198,199
202,203,206,207,210,211,214,215,218,219
222,223,226,227,230,231,234,235,238,239
242,243,246,247,250,251,254,255,258,259
262,263,266,267,270,271,274,275,278,279
282,283,286,287,290,291,294,295,298,299
302,303,306,307,310,311,314,315,318,319
322,323,326,327,330,331,334,335,338,339
342,343,346,347,350,351,354,355,358,359
362,363,366,367,370,371,374,375,378,379
382,383,386,387,390,391,394,395,398,399
** ... 41 like lines cut
** 
*nset, nset=CenterFilament 
2,6,10,14,18,22,26,30,34,38
42,46,50,54,58,62,66,70,74,78
82,86,90,94,98,102,106,110,114,118
122,126,130,134,138,142,146,150,154,158
162,166,170,174,178,182,186,190,194,198
202,206,210,214,218,222,226,230,234,238
242,246,250,254,258,262,266,270,274,278
282,286,290,294,298,302,306,310,314,318
322,326,330,334,338,342,346,350,354,358
362,366,370,374,378,382,386,390,394,398
402,406,410,414,418,422,426,430,434,438
442,446,450,454,458,462,466,470,474,478
482,486,490,494,498,502,506,510,514,518
522,526,530,534,538,542,546,550,554,558
562,566,570,574,578,582,586,590,594,598
602,606,610,614,618,622,626,630,634,638
642,646,650,654,658,662,666,670,674,678
682,686,690,694,698,702,706,710,714,718
722,726,730,734,738,742,746,750,754,758
762,766,770,774,778,782,786,790,794,798
** ... 11 like lines cut
** 
*elset, elset=Bottom 
1,2,3,4,5,6,7,8,9,10
11,12,13,14,15,16,17,18,19,20
21,22,23,24,25,26,27,28,29,30
31,32,33,34,35,36,37,38,39,40
41,42,43,44,45,46,47,48,49,50
51,52,53,54,55,56,57,58,59,60
*elset, elset=Interface 
61,62,63,64,65,66,67,68,69,70
71,72,73,74,75,76,77,78,79,80
81,82,83,84,85,86,87,88,89,90
91,92,93,94,95,96,97,98,99,100
101,102,103,104,105,106,107,108,109,110
111,112,113,114,115,116,117,118,119,120
121,122,123,124,125,126,127,128,129,130
131,132,133,134,135,136,137,138,139,140
141,142,143,144,145,146,147,148,149,150
151,152,153,154,155,156,157,158,159,160
161,162,163,164,165,166,167,168,169,170
171,172,173,174,175,176,177,178,179,180
181,182,183,184,185,186,187,188,189,190
191,192,193,194,195,196,197,198,199,200
201,202,203,204,205,206,207,208,209,210
211,212,213,214,215,216,217,218,219,220
221,222,223,224,225,226,227,228,229,230
231,232,233,234,235,236,237,238,239,240
*elset, elset=Top 
241,242,243,244,245,246,247,248,249,250
251,252,253,254,255,256,257,258,259,260
261,262,263,264,265,266,267,268,269,270
271,272,273,274,275,276,277,278,279,280
281,282,283,284,285,286,287,288,289,290
291,292,293,294,295,296,297,298,299,300
*nset, nset=Bottom 
1,2,3,4,5,6,7,8,9,10
11,12,13,14,15,16,17,18,19,20
21,22,23,24,25,26,27,28,29,30
31,32,33,34,35,36,37,38,39,40
41,42,43,44,45,46,47,48,49,50
51,52,53,54,55,56,57,58,59,60
61,62,63,64,65,66,67,68,69,70
71,72,73,74,75,76,77,78,79,80
81,82,83,84,85,86,87,88,89,90
91,92,93,94,95,96,97,98,99,100
101,102,103,104,105,106,107,108,109,110
111,112,113,114,115,116,117,118,119,120
121,122,123,124,125,126,127,128,129,130
131,132,133,134,135,136,137,138,139,140
141,142,143,144,145,146,147,148,149,150
151,152,153,154,155,156,157,158,159,160
161,162,163,164,165,166,167,168,169,170
171,172,173,174,175,176,177,178,179,180
181,182,183,184,185,186,187,188,189,190
191,192,193,194,195,196,197,198,199,200
** ... 5 like lines cut
*nset, nset=Interface 
245,246,247,248,249,250,251,252,253,254
255,256,257,258,259,260,261,262,263,264
265,266,267,268,269,270,271,272,273,274
275,276,277,278,279,280,281,282,283,284
285,286,287,288,289,290,291,292,293,294
295,296,297,298,299,300,301,302,303,304
305,306,307,308,309,310,311,312,313,314
315,316,317,318,319,320,321,322,323,324
325,326,327,328,329,330,331,332,333,334
335,336,337,338,339,340,341,342,343,344
345,346,347,348,349,350,351,352,353,354
355,356,357,358,359,360,361,362,363,364
365,366,367,368,369,370,371,372,373,374
375,376,377,378,379,380,381,382,383,384
385,386,387,388,389,390,391,392,393,394
395,396,397,398,399,400,401,402,403,404
405,406,407,408,409,410,411,412,413,414
415,416,417,418,419,420,421,422,423,424
425,426,427,428,429,430,431,432,433,434
435,436,437,438,439,440,441,442,443,444
** ... 52 like lines cut
*nset, nset=Top 
961,962,963,964,965,966,967,968,969,970
971,972,973,974,975,976,977,978,979,980
981,982,983,984,985,986,987,988,989,990
991,992,993,994,995,996,997,998,999,1000
1001,1002,1003,1004,1005,1006,1007,1008,1009,1010
1011,1012,1013,1014,1015,1016,1017,1018,1019,1020
1021,1022,1023,1024,1025,1026,1027,1028,1029,1030
1031,1032,1033,1034,1035,1036,1037,1038,1039,1040
1041,1042,1043,1044,1045,1046,1047,1048,1049,1050
1051,1052,1053,1054,1055,1056,1057,1058,1059,1060
1061,1062,1063,1064,1065,1066,1067,1068,1069,1070
1071,1072,1073,1074,1075,1076,1077,1078,1079,1080
1081,1082,1083,1084,1085,1086,1087,1088,1089,1090
1091,1092,1093,1094,1095,1096,1097,1098,1099,1100
1101,1102,1103,1104,1105,1106,1107,1108,1109,1110
1111,1112,1113,1114,1115,1116,1117,1118,1119,1120
1121,1122,1123,1124,1125,1126,1127,1128,1129,1130
1131,1132,1133,1134,1135,1136,1137,1138,1139,1140
1141,1142,1143,1144,1145,1146,1147,1148,1149,1150
1151,1152,1153,1154,1155,1156,1157,1158,1159,1160
** ... 5 like lines cut
** 
*nset, nset=RightSide 
3,4,7,8,11,12,15,16,19,20
23,24,27,28,31,32,35,36,39,40
43,44,47,48,51,52,55,56,59,60
63,64,67,68,71,72,75,76,79,80
83,84,87,88,91,92,95,96,99,100
103,104,107,108,111,112,115,116,119,120
123,124,127,128,131,132,135,136,139,140
143,144,147,148,151,152,155,156,159,160
163,164,167,168,171,172,175,176,179,180
183,184,187,188,191,192,195,196,199,200
203,204,207,208,211,212,215,216,219,220
223,224,227,228,231,232,235,236,239,240
243,244,247,248,251,252,255,256,259,260
263,264,267,268,271,272,275,276,279,280
283,284,287,288,291,292,295,296,299,300
303,304,307,308,311,312,315,316,319,320
323,324,327,328,331,332,335,336,339,340
343,344,347,348,351,352,355,356,359,360
363,364,367,368,371,372,375,376,379,380
383,384,387,388,391,392,395,396,399,400
** ... 41 like lines cut
** 
*nset, nset=TopFace 
1201,1202,1203,1204
*nset, nset=MiddleLayer 
601,602,603,604
*nset, nset=BottomFace 
1,2,3,4
**
**
**
** Dummy element, just so we can have the coupled thermal-displacement step 
*Node
999996,  0.0, 0.0 
999997,  1.e-6, 0.0 
999998,  1.e-6, 1.e-6 
999999,  0.0, 1.e-6 
*Nset, nset=extraElement 
999996,999997,999998,999999 
*Element, Type=CPE4T 
999999,999996,999997,999998,999999 
*Elset,elset=extraElement 
999999 
** 
************************************************************************
**			INITIAL CONDITIONS 
************************************************************************
** 
*Initial conditions, type=temperature
Top,<Phi0>,<MuP0_top>,<MuN0_top>
Bottom,<Phi0>,<MuP0_bot>,<MuN0_bot>
Interface,<Phi0>,<MuP0_int>,<MuN0_int>
**
*Initial conditions, type=temperature
extraElement, 0.0
**
************************************************************************
**			MATERIAL DEFINITION
************************************************************************
**
** Material properties for gel material
**
*uel property,elset=Top
<eNa>,<RT>,<epsilon>,<zP>,<OmegaP>,<ccRp0_top>,<ccRpBar>,<zN>,
<OmegaN>,<ccRn0_top>,<ccRnBar>,<zFix_top>,<ccRfix_top>,<Gshear>,<Kbulk>,<lambdaD>,
<Length>,<cE>,<nlSdv>,<ngSdv>,<nInt>,<nIntS>
*uel property,elset=Bottom
<eNa>,<RT>,<epsilon>,<zP>,<OmegaP>,<ccRp0_bot>,<ccRpBar>,<zN>,
<OmegaN>,<ccRn0_bot>,<ccRnBar>,<zFix_bot>,<ccRfix_bot>,<Gshear>,<Kbulk>,<lambdaD>,
<Length>,<cE>,<nlSdv>,<ngSdv>,<nInt>,<nIntS>
*uel property,elset=Interface
<eNa>,<RT>,<epsilon>,<zP>,<OmegaP>,<ccRp0_int>,<ccRpBar>,<zN>,
<OmegaN>,<ccRn0_int>,<ccRnBar>,<zFix_int>,<ccRfix_int>,<Gshear>,<Kbulk_int>,<lambdaD>,
<Length>,<cE>,<nlSdv>,<ngSdv>,<nInt>,<nIntS>
**
** Dummy mesh material properties
**
*Solid section, elset=extraElement, material=Material-1
*Solid section, elset=ElDummy, material=Material-2
**
*Material, name=Material-1
*Elastic
1.e-20
*Conductivity
1.0
*Density
1.0
*Specific heat
1.0
**
*Material, name=Material-2
*User output variables
<ngSdv>
*Elastic
1.e-20
**
************************************************************************
**			AMPLITUDE DEFINITION
************************************************************************
**
*Amplitude, name=dispAmpPressHold,definition=tabular
0.0,0.0,	1.0,1.0,	5.0,1.0
**
************************************************************************
**			STEP DEFINITION
************************************************************************
*Step, Name=Leave, nlgeom=yes, inc=100000
*Coupled temperature-displacement, deltmx=100.0
1.e-2,<FinalTime_1>,1.e-8,1.0
*Controls, Parameters=Time Incrementation
,,,,,,,10,,,,,,
**
*restart, write, frequency=20
**
*Boundary
MiddleLayer,11,11,<Phi0>
MiddleLayer,3,3
xzSymm,2,2
yzSymm,1,1
**
**
*Boundary
extraElement,encastre
extraElement,11,11,0.0
**
*Output, field, frequency=10
*node output, nset=nAll
u,nt
*node output, nset=extraElement
u
*element output, elset=ElDummy
uvarm,le
**
*End Step
************************************************************************
*Step, Name=PressHold, nlgeom=yes, inc=100000
*Coupled temperature-displacement, deltmx=100.0
1.e-2,<FinalTime_2>,1.e-8,1.0
*Controls, Parameters=Time Incrementation
,,,,,,,10,,,,,,
**
*restart, write, frequency=20
**
*Boundary,amplitude=dispAmpPressHold
TopFace,3,3,-.025
BottomFace,3,3,.025
**
*End Step