*Heading
Kim et al. 2020
**
**	UNITS:	Length - meters, Time - sec, Angle - radians,
**		Temperature - Kelvin, Force - Newtons,
**		Stress - Newton/meter^2 = Pa, Mass - kilograms,
**		Density - kg/meter^3, Conductivity - Watt/m-K,
**		Specific Heat - J/m^3-K, Energy - Joules,
**	    Chemical potential - Joules/mole,
**		Fluid content - moles/volume
**		Charge - Coulombs, Electric potential - Volts
**
**
************************************************************************
**			PARAMETERS
************************************************************************
*Parameter
**
************************************************************************
**	SIMULATION PARAMETERS 
**
** initial temperature (Kelvin)
theta0 = 298.0
**
************************************************************************
**  PHYSICAL CONSTANTS
** 
** elementary charge (C)
e    = 1.6e-19
**
** Avogadro's number (1/mol)
Na   = 6.023e23
**
** universal gas constant (J/mol/K)
Rgas = 8.314
**
eNa  = e*Na
RT   = Rgas*theta0   
**
************************************************************************
**
** 	GEOMETRY
**
** length of the body under consideration
Length = 1000.e-9
**
** area at the electrodes (m)
Area = 1.e-2*1.e-2
** 
************************************************************************
**	MATERIAL PARAMETERS 
**
**
**  MECHANICAL 
**
** initial shear modulus (Pa)
Gshear = 350.e6
** 
** locking stretch
lam_L  = 10.0
**
** bulk modulus (Pa)
Kbulk = Gshear
Kbulk_int = Gshear
**
**
**
**  ELECTROCHEMICAL
**
** initial voltage (V)
pphi0  = 0.0
**
** ion diffusivity (m2/s)
Dion = 1.e-14
**
**
** molar volume of positive ions (m3/mol)
OmegaP = 5.e-4
**
** maximum concentration of positive ions (mol/m3)
ccRpBar = 1.e5
**
** charge number of positive ions
zP = 1.0
**
** molar volume of positive ions (m3/mol)
OmegaN = OmegaP
**
** maximum concentration of positive ions (mol/m3)
ccRnBar = ccRpBar
**
** charge number of positive ions
zN = -1.0
**
*************************************
**
** 		TOP PART (AT)
**
**
** initial positive ion concentration (mol/m3)
ccRp0_top = 1.e-2
**
** initial non-dim. chemical potential of positive ions 
MuP0_top = log(ccRp0_top/ccRpBar) 
**
** initial negative ion concentration (mol/m3)
ccRn0_top = 1.0
**
** initial non-dim. chemical potential of negative ions
MuN0_top = log(ccRn0_top/ccRnBar)
**
** charge number of fixed groups
zFix_top = 1.0 
**	
** concentration of fixed charge groups (mol/m3)
ccRfix_top  = -ccRp0_top+ccRn0_top
**
*************************************
**
** 		BOTTOM PART (ES)
**
**
** initial positive ion concentration (mol/m3)
ccRp0_bot = 1.0
**
** initial non-dim. chemical potential of positive ions
MuP0_bot = log(ccRp0_bot/ccRpBar) 
**
** initial negative ion concentration (mol/m3)
ccRn0_bot = 1.e-2
**
** initial non-dim. chemical potential of negative ions 
MuN0_bot = log(ccRn0_bot/ccRnBar)
**
** charge number of fixed groups
zFix_bot = -1.0 
**
** concentration of fixed charge groups (mol/m3)
ccRfix_bot  =  -ccRn0_bot + ccRp0_bot
**
*************************************
**
** 		INTERFACE (interpenetrated AT and ES)
**
**
** initial positive ion concentration (mol/m3)
ccRp0_int = 0.5
**
** initial non-dim. chemical potential of positive ions
MuP0_int = log(ccRp0_int/ccRpBar) 
**
** initial negative ion concentration (mol/m3)
ccRn0_int = 0.5
**
** initial non-dim. chemical potential of negative ions
MuN0_int = log(ccRn0_int/ccRnBar)
**
** charge number of fixed groups
zFix_int = 0.0 
**
** concentration of fixed charge groups (mol/m3)
ccRfix_int  = 1.e-2
**
**
***********************************
**
** electrolyte strength (mol/m3)
cE  = 0.5
**
** relative permittivity 
epsilonR = 30.0
**
** dielectric permittivity of vacuum (F/m)
epsilon0 = 8.85e-12
**
** dielectric permittivity (F/m)
epsilon     = epsilonR*epsilon0
**
** the Debye length (m)
lambdaD = sqrt(epsilon*RT/(2.0*eNa**2.0*cE))
**
************************************************************************
**
** NON-DIMENSIONALIZING THE INITIAL CONDITIONS
**
Phi0  = pphi0*eNa/RT 
**
** Note: the initial chemical potentials are already computed in their 
** non-dimensional forms
**
************************************************************************
**
** FREQUENCY PARAMETERS
**
**
** frequency (Hz) will be assigned by "runEIS.py"
freq   = 1.0
**
** angular frequency (rad/s)
omega  = 2.0*3.14*freq
**
** period (s)
period = 1.0/freq 
**
************************************************************************
**
**  NON-DIMENSIONAL SIMULATION TIME
**
** time factor (1/s)
timeFactor   = Dion/(lambdaD*Length)
**
** non-dimensional period for a given frequency
periodND     = period*timeFactor
**
** non-dimensional simulation time
FinalTime    = 3.0*periodND
**
t0Amp=-0.75*timeFactor
**
** non-dimensional angular frequency
omegaND = omega/timeFactor
**
************************************************************************
**
**	ELEMENT PARAMETERS 
**
** number of body integration points
nInt  = 8
**
** number of surface integration points
nIntS = 4
**
** number of local sdv's
nlSdv = 5
**
** number of global sdv's
ngSdv = 4
**
** number of element variables
nVars = nInt*nlSdv
**
** number of properties (real)
nProps = 18
**
** number of integer properties
nJProps = 4
**
** Dummy Counter (Example: For 3500 Elements, set Dcount to 10000) 
Dcount = 10000
**
scale=1.
**
**
************************************************************************
**
**		MODEL DEFINITION
**
*node, nset=nAll 
1,    0.000000000,    0.000000000,    0.000000000
2,    10.000000000,    0.000000000,    0.000000000
3,    10.000000000,    10.000000000,    0.000000000
4,    0.000000000,    10.000000000,    0.000000000
5,    0.000000000,    0.000000000,    0.001000000
6,    10.000000000,    0.000000000,    0.001000000
7,    10.000000000,    10.000000000,    0.001000000
8,    0.000000000,    10.000000000,    0.001000000
9,    0.000000000,    0.000000000,    0.002000000
10,    10.000000000,    0.000000000,    0.002000000
11,    10.000000000,    10.000000000,    0.002000000
12,    0.000000000,    10.000000000,    0.002000000
13,    0.000000000,    0.000000000,    0.003000000
14,    10.000000000,    0.000000000,    0.003000000
15,    10.000000000,    10.000000000,    0.003000000
16,    0.000000000,    10.000000000,    0.003000000
17,    0.000000000,    0.000000000,    0.004000000
18,    10.000000000,    0.000000000,    0.004000000
19,    10.000000000,    10.000000000,    0.004000000
20,    0.000000000,    10.000000000,    0.004000000
** ... 1071 like lines cut

1092,    0.000000000,    10.000000000,    0.272000000
1093,    0.000000000,    0.000000000,    0.273000000
1094,    10.000000000,    0.000000000,    0.273000000
1095,    10.000000000,    10.000000000,    0.273000000
1096,    0.000000000,    10.000000000,    0.273000000
1097,    0.000000000,    0.000000000,    0.274000000
1098,    10.000000000,    0.000000000,    0.274000000
1099,    10.000000000,    10.000000000,    0.274000000
1100,    0.000000000,    10.000000000,    0.274000000
1101,    0.000000000,    0.000000000,    0.275000000
1102,    10.000000000,    0.000000000,    0.275000000
1103,    10.000000000,    10.000000000,    0.275000000
1104,    0.000000000,    10.000000000,    0.275000000
1105,    0.000000000,    0.000000000,    0.276000000
1106,    10.000000000,    0.000000000,    0.276000000
1107,    10.000000000,    10.000000000,    0.276000000
1108,    0.000000000,    10.000000000,    0.276000000
1109,    0.000000000,    0.000000000,    0.277000000
1110,    10.000000000,    0.000000000,    0.277000000
1111,    10.000000000,    10.000000000,    0.277000000
** ... 2893 like lines cut
** 
*User Element,Nodes=8,Type=U3,Iproperties=<nJProps>,Properties=<nProps>,Coordinates=3,Variables=<nVars>,Unsymm 
1,2,3,11,12,13 
*element, type=U3, elset=elAll
1,1,2,3,4,5,6,7,8
2,5,6,7,8,9,10,11,12
3,9,10,11,12,13,14,15,16
4,13,14,15,16,17,18,19,20
5,17,18,19,20,21,22,23,24
6,21,22,23,24,25,26,27,28
7,25,26,27,28,29,30,31,32
8,29,30,31,32,33,34,35,36
9,33,34,35,36,37,38,39,40
10,37,38,39,40,41,42,43,44
11,41,42,43,44,45,46,47,48
12,45,46,47,48,49,50,51,52
13,49,50,51,52,53,54,55,56
14,53,54,55,56,57,58,59,60
15,57,58,59,60,61,62,63,64
16,61,62,63,64,65,66,67,68
17,65,66,67,68,69,70,71,72
18,69,70,71,72,73,74,75,76
19,73,74,75,76,77,78,79,80
20,77,78,79,80,81,82,83,84
** ... 980 like lines cut
** 
*element, type=C3D8, elset=ElDummy 
10001,1,2,3,4,5,6,7,8
10002,5,6,7,8,9,10,11,12
10003,9,10,11,12,13,14,15,16
10004,13,14,15,16,17,18,19,20
10005,17,18,19,20,21,22,23,24
10006,21,22,23,24,25,26,27,28
10007,25,26,27,28,29,30,31,32
10008,29,30,31,32,33,34,35,36
10009,33,34,35,36,37,38,39,40
10010,37,38,39,40,41,42,43,44
10011,41,42,43,44,45,46,47,48
10012,45,46,47,48,49,50,51,52
10013,49,50,51,52,53,54,55,56
10014,53,54,55,56,57,58,59,60
10015,57,58,59,60,61,62,63,64
10016,61,62,63,64,65,66,67,68
10017,65,66,67,68,69,70,71,72
10018,69,70,71,72,73,74,75,76
10019,73,74,75,76,77,78,79,80
10020,77,78,79,80,81,82,83,84
** ... 980 like lines cut
** 
*nset, nset=xzSymm 
1,2,5,6,9,10,13,14,17,18
21,22,25,26,29,30,33,34,37,38
41,42,45,46,49,50,53,54,57,58
61,62,65,66,69,70,73,74,77,78
81,82,85,86,89,90,93,94,97,98
101,102,105,106,109,110,113,114,117,118
121,122,125,126,129,130,133,134,137,138
141,142,145,146,149,150,153,154,157,158
161,162,165,166,169,170,173,174,177,178
181,182,185,186,189,190,193,194,197,198
201,202,205,206,209,210,213,214,217,218
221,222,225,226,229,230,233,234,237,238
241,242,245,246,249,250,253,254,257,258
261,262,265,266,269,270,273,274,277,278
281,282,285,286,289,290,293,294,297,298
301,302,305,306,309,310,313,314,317,318
321,322,325,326,329,330,333,334,337,338
341,342,345,346,349,350,353,354,357,358
361,362,365,366,369,370,373,374,377,378
381,382,385,386,389,390,393,394,397,398
** ... 181 like lines cut
** 
*nset, nset=yzSymm 
2,3,6,7,10,11,14,15,18,19
22,23,26,27,30,31,34,35,38,39
42,43,46,47,50,51,54,55,58,59
62,63,66,67,70,71,74,75,78,79
82,83,86,87,90,91,94,95,98,99
102,103,106,107,110,111,114,115,118,119
122,123,126,127,130,131,134,135,138,139
142,143,146,147,150,151,154,155,158,159
162,163,166,167,170,171,174,175,178,179
182,183,186,187,190,191,194,195,198,199
202,203,206,207,210,211,214,215,218,219
222,223,226,227,230,231,234,235,238,239
242,243,246,247,250,251,254,255,258,259
262,263,266,267,270,271,274,275,278,279
282,283,286,287,290,291,294,295,298,299
302,303,306,307,310,311,314,315,318,319
322,323,326,327,330,331,334,335,338,339
342,343,346,347,350,351,354,355,358,359
362,363,366,367,370,371,374,375,378,379
382,383,386,387,390,391,394,395,398,399
** ... 181 like lines cut
** 
*nset, nset=CenterFilament 
2,6,10,14,18,22,26,30,34,38
42,46,50,54,58,62,66,70,74,78
82,86,90,94,98,102,106,110,114,118
122,126,130,134,138,142,146,150,154,158
162,166,170,174,178,182,186,190,194,198
202,206,210,214,218,222,226,230,234,238
242,246,250,254,258,262,266,270,274,278
282,286,290,294,298,302,306,310,314,318
322,326,330,334,338,342,346,350,354,358
362,366,370,374,378,382,386,390,394,398
402,406,410,414,418,422,426,430,434,438
442,446,450,454,458,462,466,470,474,478
482,486,490,494,498,502,506,510,514,518
522,526,530,534,538,542,546,550,554,558
562,566,570,574,578,582,586,590,594,598
602,606,610,614,618,622,626,630,634,638
642,646,650,654,658,662,666,670,674,678
682,686,690,694,698,702,706,710,714,718
722,726,730,734,738,742,746,750,754,758
762,766,770,774,778,782,786,790,794,798
** ... 81 like lines cut
** 
*elset, elset=Bottom 
1,2,3,4,5,6,7,8,9,10
11,12,13,14,15,16,17,18,19,20
21,22,23,24,25,26,27,28,29,30
31,32,33,34,35,36,37,38,39,40
41,42,43,44,45,46,47,48,49,50
51,52,53,54,55,56,57,58,59,60
61,62,63,64,65,66,67,68,69,70
71,72,73,74,75,76,77,78,79,80
81,82,83,84,85,86,87,88,89,90
91,92,93,94,95,96,97,98,99,100
101,102,103,104,105,106,107,108,109,110
111,112,113,114,115,116,117,118,119,120
121,122,123,124,125,126,127,128,129,130
131,132,133,134,135,136,137,138,139,140
141,142,143,144,145,146,147,148,149,150
151,152,153,154,155,156,157,158,159,160
161,162,163,164,165,166,167,168,169,170
171,172,173,174,175,176,177,178,179,180
181,182,183,184,185,186,187,188,189,190
191,192,193,194,195,196,197,198,199,200
** ... 30 like lines cut
*elset, elset=Interface 
496,497,498,499,500,501,502,503,504,505
*elset, elset=Top 
506,507,508,509,510,511,512,513,514,515
516,517,518,519,520,521,522,523,524,525
526,527,528,529,530,531,532,533,534,535
536,537,538,539,540,541,542,543,544,545
546,547,548,549,550,551,552,553,554,555
556,557,558,559,560,561,562,563,564,565
566,567,568,569,570,571,572,573,574,575
576,577,578,579,580,581,582,583,584,585
586,587,588,589,590,591,592,593,594,595
596,597,598,599,600,601,602,603,604,605
606,607,608,609,610,611,612,613,614,615
616,617,618,619,620,621,622,623,624,625
626,627,628,629,630,631,632,633,634,635
636,637,638,639,640,641,642,643,644,645
646,647,648,649,650,651,652,653,654,655
656,657,658,659,660,661,662,663,664,665
666,667,668,669,670,671,672,673,674,675
676,677,678,679,680,681,682,683,684,685
686,687,688,689,690,691,692,693,694,695
696,697,698,699,700,701,702,703,704,705
** ... 30 like lines cut
*nset, nset=Bottom 
1,2,3,4,5,6,7,8,9,10
11,12,13,14,15,16,17,18,19,20
21,22,23,24,25,26,27,28,29,30
31,32,33,34,35,36,37,38,39,40
41,42,43,44,45,46,47,48,49,50
51,52,53,54,55,56,57,58,59,60
61,62,63,64,65,66,67,68,69,70
71,72,73,74,75,76,77,78,79,80
81,82,83,84,85,86,87,88,89,90
91,92,93,94,95,96,97,98,99,100
101,102,103,104,105,106,107,108,109,110
111,112,113,114,115,116,117,118,119,120
121,122,123,124,125,126,127,128,129,130
131,132,133,134,135,136,137,138,139,140
141,142,143,144,145,146,147,148,149,150
151,152,153,154,155,156,157,158,159,160
161,162,163,164,165,166,167,168,169,170
171,172,173,174,175,176,177,178,179,180
181,182,183,184,185,186,187,188,189,190
191,192,193,194,195,196,197,198,199,200
** ... 179 like lines cut
*nset, nset=Interface 
1985,1986,1987,1988,1989,1990,1991,1992,1993,1994
1995,1996,1997,1998,1999,2000,2001,2002,2003,2004
2005,2006,2007,2008,2009,2010,2011,2012,2013,2014
2015,2016,2017,2018,2019,2020
*nset, nset=Top 
2021,2022,2023,2024,2025,2026,2027,2028,2029,2030
2031,2032,2033,2034,2035,2036,2037,2038,2039,2040
2041,2042,2043,2044,2045,2046,2047,2048,2049,2050
2051,2052,2053,2054,2055,2056,2057,2058,2059,2060
2061,2062,2063,2064,2065,2066,2067,2068,2069,2070
2071,2072,2073,2074,2075,2076,2077,2078,2079,2080
2081,2082,2083,2084,2085,2086,2087,2088,2089,2090
2091,2092,2093,2094,2095,2096,2097,2098,2099,2100
2101,2102,2103,2104,2105,2106,2107,2108,2109,2110
2111,2112,2113,2114,2115,2116,2117,2118,2119,2120
2121,2122,2123,2124,2125,2126,2127,2128,2129,2130
2131,2132,2133,2134,2135,2136,2137,2138,2139,2140
2141,2142,2143,2144,2145,2146,2147,2148,2149,2150
2151,2152,2153,2154,2155,2156,2157,2158,2159,2160
2161,2162,2163,2164,2165,2166,2167,2168,2169,2170
2171,2172,2173,2174,2175,2176,2177,2178,2179,2180
2181,2182,2183,2184,2185,2186,2187,2188,2189,2190
2191,2192,2193,2194,2195,2196,2197,2198,2199,2200
2201,2202,2203,2204,2205,2206,2207,2208,2209,2210
2211,2212,2213,2214,2215,2216,2217,2218,2219,2220
** ... 179 like lines cut
** 
*nset, nset=RightSide 
3,4,7,8,11,12,15,16,19,20
23,24,27,28,31,32,35,36,39,40
43,44,47,48,51,52,55,56,59,60
63,64,67,68,71,72,75,76,79,80
83,84,87,88,91,92,95,96,99,100
103,104,107,108,111,112,115,116,119,120
123,124,127,128,131,132,135,136,139,140
143,144,147,148,151,152,155,156,159,160
163,164,167,168,171,172,175,176,179,180
183,184,187,188,191,192,195,196,199,200
203,204,207,208,211,212,215,216,219,220
223,224,227,228,231,232,235,236,239,240
243,244,247,248,251,252,255,256,259,260
263,264,267,268,271,272,275,276,279,280
283,284,287,288,291,292,295,296,299,300
303,304,307,308,311,312,315,316,319,320
323,324,327,328,331,332,335,336,339,340
343,344,347,348,351,352,355,356,359,360
363,364,367,368,371,372,375,376,379,380
383,384,387,388,391,392,395,396,399,400
** ... 181 like lines cut
** 
*nset, nset=TopFace 
4001,4002,4003,4004
*nset, nset=MiddleLayer 
2001,2002,2003,2004
*nset, nset=BottomFace 
1,2,3,4
**
**
** Dummy element, just so we can have the coupled thermal-displacement step 
*Node
999996,  0.0, 0.0 
999997,  1.e-6, 0.0 
999998,  1.e-6, 1.e-6 
999999,  0.0, 1.e-6 
*Nset, nset=extraElement 
999996,999997,999998,999999 
*Element, Type=CPE4T 
999999,999996,999997,999998,999999 
*Elset,elset=extraElement 
999999 
** 
************************************************************************
**			INITIAL CONDITIONS 
************************************************************************
** 
*Initial conditions, type=temperature
Top,<Phi0>,<MuP0_top>,<MuN0_top>
Bottom,<Phi0>,<MuP0_bot>,<MuN0_bot>
Interface,<Phi0>,<MuP0_int>,<MuN0_int>
**
*Initial conditions, type=temperature
extraElement, 0.0
**
************************************************************************
**			MATERIAL DEFINITION
************************************************************************
**
** Material properties for gel material
**
*uel property,elset=Top
<eNa>,<RT>,<epsilon>,<zP>,<OmegaP>,<ccRp0_top>,<ccRpBar>,<zN>,
<OmegaN>,<ccRn0_top>,<ccRnBar>,<zFix_top>,<ccRfix_top>,<Gshear>,<Kbulk>,<lambdaD>,
<Length>,<cE>,<nlSdv>,<ngSdv>,<nInt>,<nIntS>
*uel property,elset=Bottom
<eNa>,<RT>,<epsilon>,<zP>,<OmegaP>,<ccRp0_bot>,<ccRpBar>,<zN>,
<OmegaN>,<ccRn0_bot>,<ccRnBar>,<zFix_bot>,<ccRfix_bot>,<Gshear>,<Kbulk>,<lambdaD>,
<Length>,<cE>,<nlSdv>,<ngSdv>,<nInt>,<nIntS>
*uel property,elset=Interface
<eNa>,<RT>,<epsilon>,<zP>,<OmegaP>,<ccRp0_int>,<ccRpBar>,<zN>,
<OmegaN>,<ccRn0_int>,<ccRnBar>,<zFix_int>,<ccRfix_int>,<Gshear>,<Kbulk>,<lambdaD>,
<Length>,<cE>,<nlSdv>,<ngSdv>,<nInt>,<nIntS>
**
** Dummy mesh material properties
**
*Solid section, elset=extraElement, material=Material-1
*Solid section, elset=ElDummy, material=Material-2
**
*Material, name=Material-1
*Elastic
1.e-20
*Conductivity
1.0
*Density
1.0
*Specific heat
1.0
**
*Material, name=Material-2
*User output variables
<ngSdv>
*Elastic
1.e-20
**
************************************************************************
**			AMPLITUDE DEFINITION
************************************************************************
**
*Amplitude, name=ampDispBC, definition=PERIODIC
1,            <omegaND>,          <t0Amp>,            1.75
             0.,            .75
*Amplitude, name=dispAmpPressHold,definition=tabular
0.0,0.0,	1.0,1.0,	5.0,1.0
**
************************************************************************
**			STEP DEFINITION
************************************************************************
*Step, Name=Leave, nlgeom=yes, inc=100000
*Coupled temperature-displacement, deltmx=100.0
1.e-2,1.0,1.e-8,1.0
*Controls, Parameters=Time Incrementation
,,,,,,,10,,,,,,
**
*restart, write, frequency=20
**
*Boundary
MiddleLayer,11,11,<Phi0>
MiddleLayer,3,3
xzSymm,2,2
yzSymm,1,1
**
**
*Boundary
extraElement,encastre
extraElement,11,11,0.0
**
*Output, field, frequency=2
*node output, nset=nAll
u,nt
*node output, nset=extraElement
u
*element output, elset=ElDummy
uvarm,le
**
*End Step
************************************************************************
*Step, Name=PressHold, nlgeom=yes, inc=100000
*Coupled temperature-displacement, deltmx=100.0
1.e-2,2.,1.e-8,0.1
*Controls, Parameters=Time Incrementation
,,,,,,,10,,,,,,
**
*restart, write, frequency=20
**
*Boundary,amplitude=dispAmpPressHold
RightSide,2,2,2.0
**
*End Step
************************************************************************
*Step, Name=Cycle, nlgeom=yes, inc=100000
*Coupled temperature-displacement, deltmx=100.0
1.e-2,<FinalTime>,1.e-8,0.1
*Controls, Parameters=Time Incrementation
,,,,,,,10,,,,,,
**
*restart, write, frequency=20
**
*Boundary,amplitude=ampDispBC
RightSide,2,2,2.0
**
*End Step
